549

N 	20.916695	18.640013	24.730598
C 	19.468260	18.429688	24.513161
O 	21.358322	19.740788	24.906136
O 	21.641565	17.728046	24.346972
C 	18.953531	17.170815	24.182524
C 	18.582365	19.509436	24.605854
C 	17.557100	16.925161	24.033773
H 	19.560740	16.274303	24.099072
C 	17.263081	19.351334	24.475246
N 	18.907503	20.850517	24.833477
C 	16.712231	18.064402	24.230589
H 	17.146563	15.978709	23.694523
N 	16.542063	20.449810	24.597839
O 	17.555330	21.387051	24.829920
N 	15.387237	17.906616	24.002855
H 	14.712268	18.651098	24.122503
H 	15.069672	16.976490	23.761686
C 	19.029648	17.848284	15.818967
C 	18.125496	16.833138	15.498511
C 	18.568407	19.125889	15.982265
C 	16.795843	17.079031	15.375056
H 	18.447592	15.799457	15.413917
N 	20.357798	17.513662	15.939291
C 	17.208853	19.390257	15.986697
O 	19.310514	20.198618	16.345736
C 	16.284103	18.388422	15.612258
H 	16.172304	16.245522	15.065445
C 	21.172836	18.521635	16.216852
H 	16.848204	20.392082	16.200420
C 	20.649820	19.923319	16.378246
N 	14.951218	18.687346	15.522019
C 	22.661619	18.286598	16.339630
C 	21.524120	20.928650	16.752260
C 	14.331338	19.951265	15.937824
C 	13.945257	17.646828	15.052642
C 	23.519348	19.347717	16.621462
C 	23.147461	16.992805	16.114574
C 	22.953867	20.737341	16.893583
H 	21.166458	21.923012	16.993874
C 	14.405385	20.946861	14.771948
H 	14.882683	20.360062	16.793575
H 	13.309767	19.799192	16.307524
C 	13.420452	16.756842	16.231043
H 	14.353616	16.996241	14.269451
H 	13.108649	18.181519	14.586156
C 	24.877409	19.155828	16.757828
C 	24.557938	16.792423	16.168636
H 	22.520592	16.182379	15.754518
O 	23.643391	21.690447	17.223778
H 	13.879571	21.842159	15.126024
H 	13.778361	20.552235	13.962921
H 	15.463938	21.149017	14.566991
H 	14.279786	16.232166	16.666544
H 	12.631187	16.100517	15.844116
H 	12.962444	17.368404	17.018208
C 	25.420288	17.841667	16.532724
H 	25.524555	19.970778	17.068399
H 	24.913725	15.784563	15.976203
H 	26.498394	17.711014	16.536522
S 	25.323515	19.827318	22.089674
C 	25.244116	19.871054	20.252108
C 	27.007404	19.286591	22.296400
H 	25.513889	18.833868	20.017851
H 	24.250586	20.046721	19.821466
H 	26.015106	20.541306	19.852427
O 	25.248854	21.234116	22.591837
H 	27.124504	18.236893	22.000029
H 	27.228790	19.363905	23.368044
H 	27.679226	19.804276	21.600649
S 	23.589617	13.705857	19.062574
C 	23.733820	12.389099	17.745985
C 	22.057501	14.455507	18.571100
H 	24.757986	12.049255	17.548502
H 	23.056028	11.602044	18.098902
H 	23.335131	12.846922	16.832285
O 	23.446301	12.985185	20.387152
H 	21.255960	14.003159	19.168028
H 	21.853313	14.295927	17.505148
H 	22.125343	15.534025	18.759798
S 	14.884737	11.513894	24.242004
C 	16.310968	12.738160	24.383368
C 	15.341789	10.871209	22.547947
H 	16.227793	13.312165	25.314503
H 	17.192774	12.141458	24.647518
H 	16.458939	13.402299	23.522884
O 	15.216995	10.361421	25.130995
H 	14.573019	10.204530	22.138147
H 	16.342270	10.426324	22.615211
H 	15.432245	11.722695	21.862223
S 	23.823544	24.789978	24.340227
C 	22.359907	23.903200	23.670004
C 	24.885551	24.459288	22.859861
H 	21.490757	23.921299	24.339083
H 	22.093428	24.435444	22.748529
H 	22.712952	22.866816	23.601637
O 	23.407843	26.187447	24.126783
H 	25.884066	24.903385	22.955534
H 	24.314743	24.756863	21.971579
H 	24.918919	23.380648	22.662806
S 	9.304606	22.589605	10.584760
C 	8.912171	23.449909	12.076382
C 	8.805494	23.897896	9.446350
H 	7.883925	23.278040	12.417812
H 	9.567620	23.103973	12.885160
H 	8.978008	24.515625	11.824757
O 	10.795884	22.462910	10.540553
H 	7.770405	23.980806	9.800089
H 	8.942063	23.583956	8.404140
H 	9.323501	24.850111	9.614768
S 	9.512712	20.537415	13.841685
C 	11.233485	20.712364	13.470073
C 	9.661309	18.861183	14.767718
H 	11.358883	21.020294	12.424678
H 	11.625553	21.424820	14.206344
H 	11.777176	19.793236	13.721114
O 	9.276770	21.513832	14.896708
H 	10.698455	18.699867	15.086654
H 	9.472339	18.086746	14.014091
H 	9.003027	18.611374	15.608947
S 	21.506718	28.272228	13.940797
C 	21.250385	26.890324	15.055791
C 	21.954330	27.279362	12.474921
H 	20.605659	27.346258	15.817275
H 	20.694489	26.109312	14.522491
H 	22.181648	26.502625	15.486884
O 	20.142845	28.836536	13.611280
H 	21.252007	26.462551	12.267613
H 	22.924629	26.829788	12.719473
H 	22.096027	27.975027	11.638637
S 	27.871767	13.225878	18.211340
C 	28.964096	13.754389	16.732050
C 	26.692038	14.651102	18.211906
H 	29.569462	14.598143	17.085617
H 	29.631254	12.927908	16.457758
H 	28.333881	14.039980	15.880771
O 	27.139126	12.072870	17.557690
H 	25.914095	14.429708	17.470825
H 	27.159002	15.610144	17.955809
H 	26.298498	14.808817	19.223669
S 	12.605474	13.335852	18.084255
C 	13.823655	13.326956	16.803268
C 	13.507398	12.563704	19.437677
H 	14.870294	13.411222	17.120836
H 	13.798909	12.431604	16.169905
H 	13.717797	14.167902	16.106840
O 	12.489648	14.781687	18.465445
H 	14.179845	13.344561	19.813822
H 	14.167054	11.754049	19.101938
H 	12.822656	12.296778	20.252104
S 	28.294510	19.788054	12.461608
C 	28.773752	21.076342	13.694655
C 	27.583813	18.608789	13.723044
H 	28.986006	20.539965	14.627746
H 	29.624781	21.714212	13.425807
H 	27.937103	21.742804	13.938090
O 	27.074465	20.332510	11.844092
H 	26.836941	19.161051	14.306655
H 	28.501423	18.205736	14.169078
H 	27.124100	17.829233	13.103072
S 	28.912125	17.745909	19.012472
C 	30.177019	18.682226	19.933187
C 	29.693794	18.162367	17.327085
H 	30.492279	18.069761	20.786951
H 	31.049871	18.976801	19.337564
H 	29.768692	19.620016	20.329710
O 	29.200638	16.274191	19.246767
H 	29.290281	19.103464	16.933493
H 	29.396133	17.306852	16.708292
H 	30.772135	18.330629	17.437906
S 	16.080992	10.923725	12.684632
C 	15.056753	11.816623	11.507820
C 	14.881485	10.958375	13.969689
H 	15.792078	12.003123	10.715406
H 	14.244848	11.156996	11.177498
H 	14.676565	12.724686	11.991842
O 	16.157284	9.497564	12.196430
H 	15.414101	10.608271	14.862524
H 	13.972355	10.483760	13.580290
H 	14.595369	11.989579	14.210851
S 	12.068180	24.115725	17.309744
C 	12.698691	25.014193	15.801700
C 	13.572696	24.357969	18.345301
H 	11.921292	25.110964	15.033782
H 	13.064695	26.038115	15.946746
H 	13.474529	24.386763	15.345832
O 	10.953714	24.904387	17.882429
H 	13.420448	23.912588	19.336191
H 	13.872221	25.411993	18.293074
H 	14.361495	23.798414	17.827513
S 	20.848522	19.197865	20.779688
C 	22.097225	17.861755	20.817343
C 	21.876867	20.468658	21.649008
H 	22.785215	18.185509	20.026606
H 	22.454079	17.617119	21.825418
H 	21.615622	16.961973	20.415030
O 	20.942682	19.647358	19.342915
H 	22.292463	20.061220	22.578896
H 	21.277018	21.335680	21.952097
H 	22.658583	20.768084	20.940014
S 	25.583324	26.992514	14.935094
C 	26.638027	28.363523	15.447036
C 	25.257938	26.374220	16.538614
H 	27.621593	27.946844	15.696794
H 	26.705135	29.027914	14.576696
H 	26.043945	28.826994	16.244322
O 	24.312260	27.634809	14.470253
H 	24.584099	25.522558	16.383656
H 	24.791222	27.102522	17.213272
H 	26.118931	26.038717	17.129835
S 	13.583898	15.255704	22.041666
C 	11.920835	14.952166	22.766129
C 	13.133784	16.840321	21.358292
H 	11.135478	15.285369	22.076496
H 	11.771991	13.884878	22.971436
H 	11.858529	15.329002	23.794495
O 	14.516760	15.468969	23.148897
H 	12.449479	17.295956	22.084608
H 	12.552265	16.623678	20.453686
H 	14.002522	17.449732	21.080223
S 	26.766998	14.523960	13.480862
C 	25.978918	13.372105	14.608643
C 	25.313860	14.972088	12.570416
H 	26.732567	13.042270	15.334334
H 	25.124449	13.752897	15.181605
H 	25.705465	12.467136	14.052174
O 	27.104706	15.683481	14.373898
H 	25.106443	14.211394	11.807707
H 	25.368624	15.981022	12.143259
H 	24.370588	14.925488	13.128516
S 	22.277531	24.476461	18.207535
C 	23.367887	25.132275	19.457111
C 	21.301939	23.528421	19.323481
H 	23.973185	25.865761	18.910282
H 	22.811960	25.517736	20.320694
H 	24.027781	24.291685	19.704819
O 	21.353867	25.548031	17.709835
H 	20.265657	23.480089	18.966852
H 	21.227573	24.005827	20.308350
H 	21.812292	22.565720	19.450581
S 	17.702663	24.939592	28.062714
C 	16.483019	25.903961	29.037277
C 	16.574478	23.608713	27.617727
H 	16.591778	26.960793	28.763973
H 	15.508231	25.546501	28.683134
H 	16.669067	25.786661	30.112009
O 	17.797441	25.726883	26.759159
H 	16.108135	23.164707	28.505871
H 	17.090891	22.742966	27.185055
H 	15.820376	24.009979	26.929449
S 	17.652617	14.862121	12.109140
C 	18.901291	14.857638	10.819089
C 	16.186586	14.844201	10.969913
H 	19.863144	15.164963	11.247807
H 	18.936537	13.831302	10.433344
H 	18.563631	15.573181	10.059223
O 	17.833757	13.503372	12.774433
H 	16.204781	15.698457	10.281931
H 	15.193467	14.730081	11.421687
H 	16.255396	13.901075	10.413867
S 	18.247669	25.643887	22.736048
C 	17.490303	24.397789	23.781645
C 	19.400974	26.084824	23.982018
H 	18.207561	23.842663	24.398716
H 	16.771610	24.903631	24.438162
H 	16.913830	23.753454	23.106434
O 	19.010925	24.808084	21.781210
H 	18.903240	26.362116	24.919451
H 	19.961929	26.941946	23.589489
H 	20.037121	25.223923	24.221970
S 	16.813612	23.769905	14.438632
C 	17.378607	25.524693	14.343879
C 	18.502586	23.117928	14.874635
H 	18.132187	25.652943	13.557068
H 	16.579803	26.236959	14.103047
H 	17.845039	25.738266	15.313538
O 	15.953476	23.583958	15.701482
H 	18.427618	22.024689	14.823384
H 	18.729034	23.256943	15.938968
H 	19.352352	23.388708	14.235897
S 	15.476132	14.432051	27.803419
C 	15.211142	15.564894	26.435583
C 	17.040569	15.115751	28.364046
H 	15.698421	15.229303	25.511812
H 	14.144093	15.493517	26.191204
H 	15.641109	16.543848	26.680901
O 	14.487167	14.824804	28.925266
H 	16.812593	15.995867	28.977909
H 	17.639727	15.476297	27.518810
H 	17.515804	14.449846	29.094887
S 	12.152885	15.262568	12.640454
C 	11.666679	14.919886	10.959162
C 	10.576715	14.921370	13.507214
H 	11.163946	13.947790	10.883678
H 	10.973839	15.720964	10.673400
H 	12.596386	14.810904	10.387177
O 	13.125069	14.144705	12.925790
H 	10.882082	15.088263	14.547553
H 	10.238728	13.880976	13.425008
H 	9.810600	15.647482	13.208486
S 	31.215675	16.651182	12.910869
C 	30.620832	15.357645	14.096399
C 	29.805332	16.234850	11.805069
H 	29.699230	14.839376	13.804078
H 	31.396091	14.612497	14.313513
H 	30.466656	15.908220	15.032618
O 	30.819160	17.960329	13.626218
H 	28.931890	16.080633	12.450603
H 	30.126886	15.407274	11.160762
H 	29.588079	17.113924	11.185845
S 	25.371223	19.275545	27.906569
C 	26.255489	19.706221	26.398605
C 	24.144318	18.189566	27.218056
H 	27.151577	20.293917	26.633230
H 	26.601645	18.825022	25.844460
H 	25.586824	20.351526	25.815609
O 	26.286285	18.505705	28.796194
H 	23.593187	17.683508	28.020287
H 	24.668863	17.472158	26.574951
H 	23.473089	18.748655	26.554514
S 	17.015003	16.066088	20.226168
C 	18.503311	16.339252	19.264580
C 	15.862699	16.424267	18.763857
H 	18.908772	17.358282	19.288881
H 	19.345695	15.783122	19.694138
H 	18.370533	15.961905	18.243120
O 	16.879978	14.547082	20.364317
H 	16.239212	15.899204	17.877319
H 	15.665837	17.495850	18.635923
H 	14.904271	15.953104	19.014542
S 	21.819794	14.584528	28.540352
C 	20.850212	16.058439	28.515192
C 	21.123951	13.878714	27.022217
H 	19.826962	15.897337	28.876322
H 	21.427612	16.685614	29.205603
H 	20.875267	16.620718	27.573582
O 	23.268497	15.085272	28.241228
H 	21.680523	12.982821	26.720551
H 	21.100426	14.644938	26.237513
H 	20.077637	13.626459	27.234348
S 	23.144043	18.348166	11.287332
C 	23.839584	18.462191	12.920172
C 	24.678654	18.193010	10.355794
H 	23.211601	19.095903	13.558496
H 	23.681896	17.487574	13.398359
H 	24.851982	18.884024	12.942929
O 	22.446465	17.018908	11.280234
H 	25.271694	19.113817	10.293974
H 	24.361481	17.829638	9.370517
H 	25.354820	17.434500	10.769168
S 	11.480957	20.771528	19.355959
C 	10.483274	20.199757	17.826807
C 	11.116959	19.412842	20.516294
H 	11.038479	19.383938	17.347654
H 	9.494539	19.915607	18.207682
H 	10.494549	21.057964	17.143602
O 	12.904863	20.618803	18.988344
H 	10.091961	19.625294	20.844393
H 	11.727484	19.479948	21.425230
H 	11.224842	18.419714	20.063005
S 	25.254326	15.527788	22.017057
C 	26.995100	15.146772	22.236921
C 	24.977772	16.100431	23.707926
H 	27.131668	14.298361	22.918791
H 	27.377083	14.880362	21.243685
H 	27.353756	16.120913	22.591639
O 	25.168711	16.712282	21.160372
H 	23.934156	16.434381	23.655451
H 	25.738869	16.849558	23.958830
H 	25.086298	15.204523	24.331610
S 	13.819500	22.407896	21.709803
C 	13.873648	20.669788	22.153820
C 	13.824221	22.904272	23.497543
H 	12.911630	20.363312	22.582775
H 	14.016109	20.142162	21.202650
H 	14.710798	20.590979	22.858362
O 	15.152746	22.767113	21.150042
H 	13.942154	23.991436	23.584555
H 	14.704719	22.474194	23.990662
H 	12.882372	22.563145	23.944714
S 	11.550912	18.233860	24.781616
C 	11.383771	17.637173	26.502298
C 	10.439898	19.642750	24.902082
H 	12.210837	16.955030	26.734791
H 	11.450205	18.455156	27.230240
H 	10.514360	16.997690	26.698759
O 	12.891522	18.859140	24.697561
H 	9.426427	19.242413	25.028629
H 	10.583280	20.378494	24.101126
H 	10.611132	20.084524	25.891487
S 	20.292656	20.380808	11.998889
C 	20.028538	18.681738	12.451068
C 	18.522648	20.807547	12.005107
H 	19.930050	18.085802	11.535331
H 	20.880688	18.230627	12.974273
H 	19.043327	18.506155	12.900451
O 	20.928764	20.969912	13.200049
H 	17.990944	20.181227	11.278182
H 	18.391281	21.871817	11.773845
H 	18.138638	20.551462	13.000278
S 	20.741505	11.796621	14.855701
C 	19.053909	11.247523	14.490492
C 	20.968182	13.177260	13.642000
H 	18.312840	12.055698	14.523357
H 	18.991264	10.767736	13.505967
H 	18.792927	10.524966	15.273565
O 	20.708771	12.340626	16.272533
H 	22.017624	13.477374	13.751582
H 	20.352203	14.029720	13.953913
H 	20.693813	12.932533	12.608442
S 	7.471292	16.893908	17.633486
C 	7.795121	15.944399	19.195896
C 	5.610478	16.769754	17.670126
H 	8.859506	15.708158	19.317087
H 	7.565854	16.596769	20.047516
H 	7.155683	15.065359	19.343653
O 	7.744500	18.387629	17.825193
H 	5.259454	15.763903	17.931778
H 	5.246198	16.987333	16.658510
H 	5.255662	17.526747	18.380398
S 	20.742989	22.798077	29.035557
C 	21.608189	21.189182	29.008896
C 	20.912937	23.060556	27.212929
H 	21.541187	20.545094	28.123421
H 	22.657299	21.441635	29.206476
H 	21.298164	20.619123	29.893389
O 	19.311630	22.391026	29.255129
H 	21.980469	22.965427	26.978970
H 	20.526970	24.057497	26.966856
H 	20.354706	22.284521	26.674824
S 	27.304796	22.249748	17.098583
C 	26.253336	22.976328	18.345215
C 	28.220961	23.618652	16.410305
H 	26.935265	23.416183	19.083393
H 	25.509512	23.703440	17.996710
H 	25.790159	22.146303	18.892878
O 	28.276138	21.436949	17.863846
H 	27.582291	24.276960	15.808536
H 	28.943426	23.180168	15.710886
H 	28.792068	24.217178	17.130728
S 	24.618790	22.301943	14.114193
C 	23.128307	23.177118	14.524143
C 	24.313446	22.078218	12.321532
H 	23.097691	23.963346	13.759732
H 	22.329601	22.430449	14.613359
H 	23.337765	23.751173	15.435190
O 	25.793133	23.166887	14.341606
H 	24.710003	22.880461	11.687057
H 	23.242378	22.158842	12.098547
H 	24.783360	21.159418	11.949519
S 	7.901819	19.111998	11.072938
C 	9.718702	19.179056	10.576374
C 	7.150285	18.125307	9.713952
H 	10.098705	18.174078	10.354964
H 	9.782421	19.820162	9.688489
H 	10.291063	19.534468	11.442106
O 	7.740640	18.284353	12.279383
H 	6.107437	18.464052	9.747520
H 	7.302457	17.096930	10.064232
H 	7.710716	18.298746	8.786998
S 	15.455553	23.805826	11.239955
C 	14.684822	24.697563	9.820609
C 	13.832863	22.957207	11.810184
H 	15.403182	24.929367	9.024604
H 	14.021023	23.948296	9.371856
H 	14.137273	25.576841	10.181811
O 	16.164303	22.688257	10.563197
H 	13.711027	22.122614	11.108745
H 	12.950610	23.607927	11.850192
H 	14.049590	22.564932	12.811458
S 	14.086790	18.493835	10.849546
C 	13.663094	19.548500	9.417075
C 	15.409378	19.571751	11.408806
H 	12.585108	19.484735	9.223976
H 	13.949226	20.590590	9.605721
H 	14.251459	19.150328	8.581201
O 	13.009033	18.858332	11.801416
H 	14.958029	20.485928	11.813728
H 	16.116344	19.661634	10.574823
H 	15.983023	19.146467	12.241556
S 	13.212029	22.712917	28.603540
C 	12.753125	21.939945	26.962582
C 	11.734204	22.210529	29.511480
H 	13.474973	22.207996	26.181238
H 	12.764600	20.844296	26.909388
H 	11.770604	22.301928	26.635433
O 	14.333001	21.894789	29.164196
H 	11.915719	22.242451	30.592888
H 	11.482400	21.165257	29.293743
H 	10.930726	22.891815	29.205404
S 	17.121683	20.305664	21.114477
C 	18.366943	21.577713	21.548914
C 	16.842073	20.854225	19.411661
H 	18.870155	21.233246	22.460798
H 	19.052399	21.578423	20.692434
H 	17.907967	22.568039	21.658575
O 	17.708870	18.931908	21.100183
H 	17.659315	20.792000	18.682516
H 	16.494738	21.891930	19.488680
H 	16.029787	20.220421	19.034979
S 	17.408354	11.192858	17.858677
C 	17.626419	12.973974	17.329004
C 	17.040413	11.579889	19.580721
H 	18.564438	13.442747	17.651144
H 	17.566156	12.867220	16.238874
H 	16.788345	13.463495	17.840286
O 	16.106894	10.855200	17.221817
H 	16.859138	10.675489	20.174528
H 	16.205854	12.288969	19.644985
H 	17.742208	12.209539	20.141464
S 	10.629903	12.764238	26.452572
C 	10.901590	11.230619	25.404337
C 	12.373764	13.244936	26.550894
H 	11.597842	10.552542	25.913113
H 	9.981475	10.697306	25.135321
H 	11.318434	11.477087	24.420002
O 	10.099697	13.798990	25.535185
H 	12.492055	13.717821	27.533638
H 	12.768489	13.750917	25.661182
H 	12.893469	12.281813	26.626471
S 	18.071844	27.056982	18.074543
C 	19.346754	27.669798	19.236303
C 	17.650431	25.400377	18.919733
H 	19.919661	28.541883	18.897694
H 	18.736794	27.830816	20.133762
H 	20.091522	26.880583	19.397137
O 	16.856661	27.994741	18.347391
H 	17.208599	25.667093	19.887751
H 	18.613890	24.914343	19.117041
H 	16.896015	24.865053	18.330076
S 	20.258202	13.114565	23.490957
C 	19.356380	13.304720	21.916401
C 	21.695007	14.205069	23.076441
H 	18.313971	12.963362	21.900099
H 	19.148911	14.380285	21.857025
H 	19.909115	13.009550	21.015974
O 	19.453485	13.835405	24.488802
H 	22.133482	13.700445	22.206667
H 	22.474503	14.251692	23.846910
H 	21.368639	15.199480	22.747747
S 	18.174116	19.332850	27.849657
C 	16.535635	19.894327	28.073275
C 	18.603628	18.957220	29.497561
H 	16.411226	20.660936	28.848024
H 	15.978651	20.128317	27.157618
H 	15.947915	19.011969	28.355120
O 	18.125334	18.004686	27.141214
H 	17.922735	18.222635	29.944979
H 	18.549700	19.954443	29.951479
H 	19.617098	18.537889	29.518770
